.MODEL J2N5457 NJF(VTO=-1.8 BETA=0.00135 LAMBDA=0.001 RD=35 RS=31.5
+ CGS=2.25E-12 CGD=6E-12 KF=6.5E-17 AF=0.5 )
