.model 1N34A D (Bv=75 Cjo=0.5e-12 Eg=0.67 Ibv=18e-3 Is=2e-7 Rs=7 N=1.3 Vj=0.1 M=0.27) 
.model 1N4001 D  ( IS=76.9p RS=42.0m BV=50.0 IBV=5.00u CJO=39.8p  M=0.333 N=1.45 TT=4.32u )
