Version 4
SHEET 1 1324 900
WIRE -1584 -576 -1664 -576
WIRE -1456 -576 -1520 -576
WIRE -1664 -464 -1664 -576
WIRE -1584 -464 -1664 -464
WIRE -1456 -464 -1456 -576
WIRE -1456 -464 -1520 -464
WIRE -1664 -384 -1664 -464
WIRE -1552 -384 -1664 -384
WIRE -1664 -320 -1664 -384
WIRE -1648 -320 -1664 -320
WIRE -1552 -320 -1552 -384
WIRE -1552 -320 -1568 -320
WIRE -1536 -320 -1552 -320
WIRE -1456 -320 -1456 -464
WIRE -2544 -288 -2592 -288
WIRE -2416 -288 -2464 -288
WIRE -2768 -144 -2816 -144
WIRE -2592 -144 -2592 -288
WIRE -2592 -144 -2688 -144
WIRE -1584 -112 -1584 -160
WIRE -2496 -96 -2496 -144
WIRE -1664 -96 -1664 -320
WIRE -1616 -96 -1664 -96
WIRE -2592 -80 -2592 -144
WIRE -2528 -80 -2592 -80
WIRE -1456 -80 -1456 -320
WIRE -1456 -80 -1552 -80
WIRE -1264 -80 -1456 -80
WIRE -2416 -64 -2416 -288
WIRE -2416 -64 -2464 -64
WIRE -2384 -64 -2416 -64
WIRE -2272 -64 -2320 -64
WIRE -2224 -64 -2272 -64
WIRE -2128 -64 -2160 -64
WIRE -2064 -64 -2128 -64
WIRE -1936 -64 -1984 -64
WIRE -1904 -64 -1936 -64
WIRE -1760 -64 -1824 -64
WIRE -1616 -64 -1760 -64
WIRE -2528 -48 -2592 -48
WIRE -2768 -16 -2816 -16
WIRE -2640 -16 -2688 -16
WIRE -2592 -16 -2592 -48
WIRE -2592 -16 -2640 -16
WIRE -1584 -16 -1584 -48
WIRE -1264 -16 -1264 -80
WIRE -2272 0 -2272 -64
WIRE -2128 0 -2128 -64
WIRE -1936 0 -1936 -64
WIRE -1760 0 -1760 -64
WIRE -2640 16 -2640 -16
WIRE -2496 16 -2496 -32
WIRE -1264 80 -1264 64
WIRE -1168 80 -1264 80
WIRE -3088 96 -3152 96
WIRE -1264 96 -1264 80
WIRE -2640 128 -2640 96
WIRE -3152 144 -3152 96
WIRE -2272 208 -2272 80
WIRE -2128 208 -2128 80
WIRE -2128 208 -2272 208
WIRE -1936 208 -1936 64
WIRE -1936 208 -2128 208
WIRE -1760 208 -1760 64
WIRE -1760 208 -1936 208
WIRE -1264 208 -1264 176
WIRE -1264 208 -1760 208
WIRE -1936 240 -1936 208
WIRE -3152 288 -3152 224
WIRE -3088 432 -3152 432
WIRE -2368 448 -2368 416
WIRE -2240 448 -2240 416
WIRE -3152 480 -3152 432
WIRE -2640 480 -2640 416
WIRE -2368 560 -2368 528
WIRE -2304 560 -2368 560
WIRE -2240 560 -2240 528
WIRE -2240 560 -2304 560
WIRE -3152 624 -3152 560
WIRE -2640 624 -2640 560
WIRE -2304 624 -2304 560
FLAG -3152 288 0
FLAG -3088 96 inputHot
IOPIN -3088 96 Out
FLAG -2816 -16 inputHot
IOPIN -2816 -16 In
FLAG -2640 624 0
FLAG -2640 416 rec
IOPIN -2640 416 Out
FLAG -2368 416 V+
IOPIN -2368 416 Out
FLAG -1936 240 0
FLAG -1584 -160 V+
IOPIN -1584 -160 In
FLAG -1168 80 output
IOPIN -1168 80 Out
FLAG -1584 -16 V-
IOPIN -1584 -16 In
FLAG -2240 416 V-
IOPIN -2240 416 Out
FLAG -2304 624 0
FLAG -3152 624 0
FLAG -3088 432 inputCold
IOPIN -3088 432 Out
FLAG -2816 -144 inputCold
IOPIN -2816 -144 In
FLAG -2640 128 0
FLAG -2496 -144 V+
IOPIN -2496 -144 In
FLAG -2496 16 V-
IOPIN -2496 16 In
SYMBOL voltage -3152 128 R0
SYMATTR InstName V1
SYMATTR Value wavefile=../voxtest_balanced.wav CHAN=0
SYMBOL voltage -2368 432 R0
WINDOW 123 0 0 Left 2
WINDOW 39 0 0 Left 2
SYMATTR InstName V3
SYMATTR Value 5
SYMBOL bv -2640 464 R0
SYMATTR InstName B1
SYMATTR Value V=V(output)
SYMBOL cap -2320 -80 R90
WINDOW 0 0 32 VBottom 2
WINDOW 3 32 32 VTop 2
SYMATTR InstName C1
SYMATTR Value 39n
SYMBOL cap -2160 -80 R90
WINDOW 0 0 32 VBottom 2
WINDOW 3 32 32 VTop 2
SYMATTR InstName C4
SYMATTR Value 39n
SYMBOL res -2288 -16 R0
SYMATTR InstName R4
SYMATTR Value 10k
SYMBOL res -2144 -16 R0
SYMATTR InstName R7
SYMATTR Value 10k
SYMBOL res -1968 -80 R90
WINDOW 0 0 56 VBottom 2
WINDOW 3 32 56 VTop 2
SYMATTR InstName R3
SYMATTR Value 2k
SYMBOL res -1808 -80 R90
WINDOW 0 0 56 VBottom 2
WINDOW 3 32 56 VTop 2
SYMATTR InstName R8
SYMATTR Value 2k
SYMBOL cap -1952 0 R0
SYMATTR InstName C5
SYMATTR Value 39n
SYMBOL cap -1776 0 R0
SYMATTR InstName C6
SYMATTR Value 39n
SYMBOL Opamps\\opamp2 -1584 -144 R0
SYMATTR InstName U2
SYMATTR Value TL082
SYMBOL res -1552 -336 R90
WINDOW 0 0 56 VBottom 2
WINDOW 3 32 56 VTop 2
SYMATTR InstName R9
SYMATTR Value 50k
SYMBOL res -1440 -336 R90
WINDOW 0 0 56 VBottom 2
WINDOW 3 32 56 VTop 2
SYMATTR InstName R10
SYMATTR Value 50k
SYMBOL diode -1520 -480 R90
WINDOW 0 0 32 VBottom 2
WINDOW 3 32 32 VTop 2
SYMATTR InstName D1
SYMATTR Value 1N914
SYMBOL diode -1584 -560 R270
WINDOW 0 32 32 VTop 2
WINDOW 3 0 32 VBottom 2
SYMATTR InstName D2
SYMATTR Value 1N914
SYMBOL res -1280 -32 R0
SYMATTR InstName R11
SYMATTR Value 20k
SYMBOL res -1280 80 R0
SYMATTR InstName R12
SYMATTR Value 80k
SYMBOL voltage -2240 544 M180
WINDOW 0 24 96 Left 2
WINDOW 3 24 16 Left 2
WINDOW 123 0 0 Left 2
WINDOW 39 0 0 Left 2
SYMATTR InstName V2
SYMATTR Value 5
SYMBOL Opamps\\opamp2 -2496 -128 R0
SYMATTR InstName U1
SYMATTR Value TL082
SYMBOL voltage -3152 464 R0
SYMATTR InstName V4
SYMATTR Value wavefile=../voxtest_balanced.wav CHAN=1
SYMBOL res -2672 -160 R90
WINDOW 0 0 56 VBottom 2
WINDOW 3 32 56 VTop 2
SYMATTR InstName R1
SYMATTR Value 150
SYMBOL res -2672 -32 R90
WINDOW 0 0 56 VBottom 2
WINDOW 3 32 56 VTop 2
SYMATTR InstName R2
SYMATTR Value 150
SYMBOL res -2656 0 R0
SYMATTR InstName R5
SYMATTR Value 3k
SYMBOL res -2448 -304 R90
WINDOW 0 0 56 VBottom 2
WINDOW 3 32 56 VTop 2
SYMATTR InstName R6
SYMATTR Value 3k
TEXT -2960 -488 Left 2 !.wave .\\out.wav 16 44100 V(output)
TEXT -2960 -416 Left 2 !.tran 3s
TEXT -2960 -464 Left 2 !.inc tl082.inc
TEXT -2960 -440 Left 2 !.inc diodes.inc
TEXT -1744 -280 Left 2 ;Gain
TEXT -1368 80 Left 2 ;Volume
TEXT -2960 -512 Left 2 !.inc DRV134.inc
