Version 4
SHEET 1 1324 900
WIRE -1584 -560 -1664 -560
WIRE -1456 -560 -1520 -560
WIRE -1664 -464 -1664 -560
WIRE -1584 -464 -1664 -464
WIRE -1456 -464 -1456 -560
WIRE -1456 -464 -1520 -464
WIRE -1664 -352 -1664 -464
WIRE -1552 -352 -1664 -352
WIRE -2192 -288 -2384 -288
WIRE -1664 -288 -1664 -352
WIRE -1648 -288 -1664 -288
WIRE -1552 -288 -1552 -352
WIRE -1552 -288 -1568 -288
WIRE -1536 -288 -1552 -288
WIRE -1456 -288 -1456 -464
WIRE -2192 -224 -2192 -288
WIRE -2288 -96 -2288 -160
WIRE -2832 -80 -2880 -80
WIRE -2720 -80 -2768 -80
WIRE -2672 -80 -2720 -80
WIRE -2576 -80 -2608 -80
WIRE -2512 -80 -2576 -80
WIRE -2384 -80 -2384 -288
WIRE -2384 -80 -2432 -80
WIRE -2320 -80 -2384 -80
WIRE -1584 -80 -1584 -128
WIRE -2192 -64 -2192 -144
WIRE -2192 -64 -2256 -64
WIRE -2064 -64 -2192 -64
WIRE -1936 -64 -1984 -64
WIRE -1904 -64 -1936 -64
WIRE -1760 -64 -1824 -64
WIRE -1664 -64 -1664 -288
WIRE -1664 -64 -1760 -64
WIRE -1616 -64 -1664 -64
WIRE -2320 -48 -2384 -48
WIRE -1456 -48 -1456 -288
WIRE -1456 -48 -1552 -48
WIRE -1264 -48 -1456 -48
WIRE -1616 -32 -1664 -32
WIRE -2720 -16 -2720 -80
WIRE -2576 -16 -2576 -80
WIRE -1264 -16 -1264 -48
WIRE -2288 0 -2288 -32
WIRE -1936 0 -1936 -64
WIRE -1760 0 -1760 -64
WIRE -1584 16 -1584 -16
WIRE -1264 80 -1264 64
WIRE -1008 80 -1264 80
WIRE -1264 96 -1264 80
WIRE -2720 208 -2720 64
WIRE -2576 208 -2576 64
WIRE -2576 208 -2720 208
WIRE -2384 208 -2384 -48
WIRE -2384 208 -2576 208
WIRE -1936 208 -1936 64
WIRE -1936 208 -2384 208
WIRE -1760 208 -1760 64
WIRE -1760 208 -1936 208
WIRE -1664 208 -1664 -32
WIRE -1664 208 -1760 208
WIRE -1264 208 -1264 176
WIRE -1264 208 -1664 208
WIRE -3120 224 -3216 224
WIRE -1936 240 -1936 208
WIRE -3216 256 -3216 224
WIRE -3120 272 -3120 224
WIRE -3216 368 -3216 336
WIRE -3120 368 -3216 368
WIRE -3216 400 -3216 368
WIRE -2544 464 -2624 464
WIRE -2352 464 -2416 464
WIRE -2624 496 -2624 464
WIRE -2416 496 -2416 464
WIRE -3216 528 -3216 480
WIRE -2896 528 -2896 432
WIRE -2624 608 -2624 576
WIRE -2416 608 -2416 576
WIRE -2416 608 -2624 608
WIRE -2624 656 -2624 608
WIRE -3216 672 -3216 608
WIRE -2896 672 -2896 608
FLAG -3216 672 0
FLAG -3120 368 input
IOPIN -3120 368 Out
FLAG -2880 -80 input
IOPIN -2880 -80 In
FLAG -2896 672 0
FLAG -2896 432 rec
IOPIN -2896 432 Out
FLAG -2288 -160 V+
IOPIN -2288 -160 In
FLAG -2624 656 0
FLAG -2544 464 V+
IOPIN -2544 464 Out
FLAG -1936 240 0
FLAG -1584 -128 V+
IOPIN -1584 -128 In
FLAG -3120 272 0
FLAG -1008 80 output
IOPIN -1008 80 Out
FLAG -2288 0 V-
IOPIN -2288 0 In
FLAG -1584 16 V-
IOPIN -1584 16 In
FLAG -2352 464 V-
IOPIN -2352 464 Out
SYMBOL voltage -3216 512 R0
SYMATTR InstName V1
SYMATTR Value wavefile=../voxtest.wav
SYMBOL res -2208 -128 M180
WINDOW 0 36 76 Left 2
WINDOW 3 36 40 Left 2
SYMATTR InstName R2
SYMATTR Value 10k
SYMATTR SpiceLine tol=1 pwr=0.25
SYMBOL voltage -2624 480 R0
WINDOW 123 0 0 Left 2
WINDOW 39 0 0 Left 2
SYMATTR InstName V3
SYMATTR Value 9
SYMBOL bv -2896 512 R0
SYMATTR InstName B1
SYMATTR Value V=V(output)
SYMBOL res -2416 -96 R90
WINDOW 0 0 56 VBottom 2
WINDOW 3 32 56 VTop 2
SYMATTR InstName R1
SYMATTR Value 1k
SYMBOL cap -2768 -96 R90
WINDOW 0 0 32 VBottom 2
WINDOW 3 32 32 VTop 2
SYMATTR InstName C1
SYMATTR Value 39n
SYMBOL cap -2608 -96 R90
WINDOW 0 0 32 VBottom 2
WINDOW 3 32 32 VTop 2
SYMATTR InstName C4
SYMATTR Value 39n
SYMBOL res -2736 -32 R0
SYMATTR InstName R4
SYMATTR Value 10k
SYMBOL res -2592 -32 R0
SYMATTR InstName R7
SYMATTR Value 10k
SYMBOL Opamps\\opamp2 -2288 -128 R0
SYMATTR InstName U1
SYMATTR Value TL082
SYMBOL res -1968 -80 R90
WINDOW 0 0 56 VBottom 2
WINDOW 3 32 56 VTop 2
SYMATTR InstName R3
SYMATTR Value 2k
SYMBOL res -1808 -80 R90
WINDOW 0 0 56 VBottom 2
WINDOW 3 32 56 VTop 2
SYMATTR InstName R8
SYMATTR Value 2k
SYMBOL cap -1952 0 R0
SYMATTR InstName C5
SYMATTR Value 39n
SYMBOL cap -1776 0 R0
SYMATTR InstName C6
SYMATTR Value 39n
SYMBOL Opamps\\opamp2 -1584 -112 R0
SYMATTR InstName U2
SYMATTR Value TL082
SYMBOL res -1552 -304 R90
WINDOW 0 0 56 VBottom 2
WINDOW 3 32 56 VTop 2
SYMATTR InstName R9
SYMATTR Value 70k
SYMBOL res -1440 -304 R90
WINDOW 0 0 56 VBottom 2
WINDOW 3 32 56 VTop 2
SYMATTR InstName R10
SYMATTR Value 30k
SYMBOL diode -1520 -480 R90
WINDOW 0 0 32 VBottom 2
WINDOW 3 32 32 VTop 2
SYMATTR InstName D1
SYMATTR Value 1N34A
SYMBOL diode -1584 -544 R270
WINDOW 0 32 32 VTop 2
WINDOW 3 0 32 VBottom 2
SYMATTR InstName D2
SYMATTR Value 1N4001
SYMBOL res -1280 -32 R0
SYMATTR InstName R11
SYMATTR Value 10k
SYMBOL res -1280 80 R0
SYMATTR InstName R12
SYMATTR Value 90k
SYMBOL res -3232 384 R0
SYMATTR InstName R13
SYMATTR Value 10k
SYMBOL res -3232 240 R0
SYMATTR InstName R14
SYMATTR Value 10k
SYMBOL voltage -2416 592 M180
WINDOW 0 24 96 Left 2
WINDOW 3 24 16 Left 2
WINDOW 123 0 0 Left 2
WINDOW 39 0 0 Left 2
SYMATTR InstName V2
SYMATTR Value 9
TEXT -3064 -312 Left 2 !.wave .\\out.wav 16 44100 V(output)
TEXT -3064 -240 Left 2 !.tran 3s
TEXT -3064 -288 Left 2 !.inc tl082.inc
TEXT -3064 -264 Left 2 !.inc diodes.inc
TEXT -1744 -280 Left 2 ;Gain
TEXT -1368 80 Left 2 ;Volume
TEXT -3064 -336 Left 2 !.inc DRV134.inc
